Version 4
SHEET 1 1844 680
WIRE 416 -288 -32 -288
WIRE 720 -288 416 -288
WIRE 1008 -288 720 -288
WIRE 1344 -288 1008 -288
WIRE 1840 -288 1344 -288
WIRE 416 -144 416 -288
WIRE 752 32 704 32
WIRE 1008 32 1008 -288
WIRE 1008 32 976 32
WIRE 416 96 416 -64
WIRE 752 96 416 96
WIRE 1344 96 1344 -288
WIRE 1296 112 1216 112
WIRE -32 128 -32 -288
WIRE 752 160 736 160
WIRE 1024 160 976 160
WIRE 720 224 720 -288
WIRE 752 224 720 224
WIRE 1216 240 1216 112
WIRE 416 320 416 96
WIRE 1024 320 1024 160
WIRE 1024 320 416 320
WIRE 1344 352 1344 192
WIRE 416 384 416 320
WIRE 736 400 736 160
WIRE 1216 400 1216 320
WIRE 1216 400 736 400
WIRE -32 560 -32 208
WIRE 32 560 -32 560
WIRE 416 560 416 448
WIRE 416 560 32 560
WIRE 704 560 704 32
WIRE 704 560 416 560
WIRE 1344 560 1344 432
WIRE 1344 560 704 560
WIRE 1840 560 1344 560
WIRE 32 624 32 560
FLAG 32 624 0
SYMBOL voltage -32 112 R0
WINDOW 123 0 0 Left 2
WINDOW 39 0 0 Left 2
SYMATTR InstName V1
SYMATTR Value PULSE(0 12 1 0 0 1.5 3 10)
SYMBOL Misc\\NE555 864 128 R0
SYMATTR InstName U1
SYMBOL cap 400 384 R0
SYMATTR Value 47µ
SYMATTR InstName C1
SYMATTR SpiceLine V=16 Irms=11.7 Rser=0.00333036 Lser=0 mfg="KEMET" pn="C1210C476K4PAC" type="X5R"
SYMBOL res 400 -160 R0
SYMATTR InstName R1
SYMATTR Value 6000
SYMBOL pmos 1296 192 M180
WINDOW 3 72 65 Left 2
SYMATTR Value RSR015P06
SYMATTR InstName M1
SYMBOL res 1200 224 R0
SYMATTR InstName R4
SYMATTR Value 100000
SYMBOL res 1328 336 R0
SYMATTR InstName R2
SYMATTR Value 100
TEXT -64 648 Left 2 !.tran 10
