Version 4
SHEET 1 1844 680
WIRE 416 -288 -32 -288
WIRE 720 -288 416 -288
WIRE 1008 -288 720 -288
WIRE 1344 -288 1008 -288
WIRE 1840 -288 1344 -288
WIRE 416 -176 416 -288
WIRE 416 -176 352 -176
WIRE 352 -144 352 -176
WIRE 416 -144 416 -176
WIRE 352 -64 352 -80
WIRE 1344 -48 1344 -288
WIRE 1344 -48 1248 -48
WIRE 1248 -16 1248 -48
WIRE 752 32 704 32
WIRE 1008 32 1008 -288
WIRE 1008 32 976 32
WIRE 352 48 352 16
WIRE 416 48 416 -64
WIRE 416 48 352 48
WIRE 416 96 416 48
WIRE 752 96 416 96
WIRE 1344 96 1344 -48
WIRE 1248 112 1248 64
WIRE 1248 112 1216 112
WIRE 1296 112 1248 112
WIRE -32 128 -32 -288
WIRE 752 160 736 160
WIRE 1024 160 976 160
WIRE 720 224 720 -288
WIRE 752 224 720 224
WIRE 992 224 976 224
WIRE 1344 224 1344 192
WIRE 1440 224 1344 224
WIRE 1216 240 1216 112
WIRE 1344 240 1344 224
WIRE 1440 240 1440 224
WIRE 416 320 416 96
WIRE 1024 320 1024 160
WIRE 1024 320 416 320
WIRE 1344 336 1344 304
WIRE 1440 336 1440 304
WIRE 1440 336 1344 336
WIRE 1344 352 1344 336
WIRE 416 384 416 320
WIRE 736 400 736 160
WIRE 1216 400 1216 320
WIRE 1216 400 736 400
WIRE 992 448 992 224
WIRE -32 560 -32 208
WIRE 32 560 -32 560
WIRE 416 560 416 448
WIRE 416 560 32 560
WIRE 704 560 704 32
WIRE 704 560 416 560
WIRE 992 560 992 512
WIRE 992 560 704 560
WIRE 1344 560 1344 432
WIRE 1344 560 992 560
WIRE 1840 560 1344 560
WIRE 32 624 32 560
FLAG 32 624 0
SYMBOL voltage -32 112 R0
WINDOW 123 0 0 Left 2
WINDOW 39 0 0 Left 2
SYMATTR InstName V1
SYMATTR Value PULSE(0 12 1 0 0 1.5 3 10)
SYMBOL Misc\\NE555 864 128 R0
SYMATTR InstName U1
SYMBOL polcap 400 384 R0
WINDOW 3 24 56 Left 2
SYMATTR Value 100µ
SYMATTR InstName C1
SYMATTR Description Capacitor
SYMATTR Type cap
SYMATTR SpiceLine V=16 Irms=135m Rser=0.8 Lser=0
SYMBOL res 400 -160 R0
SYMATTR InstName R1
SYMATTR Value 1000
SYMBOL diode 368 -80 R180
WINDOW 0 24 64 Left 2
WINDOW 3 24 0 Left 2
SYMATTR InstName D1
SYMATTR Value 1N4148
SYMBOL pmos 1296 192 M180
WINDOW 3 72 65 Left 2
SYMATTR Value IRF7404
SYMATTR InstName M1
SYMBOL res 336 -80 R0
SYMATTR InstName R3
SYMATTR Value 250
SYMBOL res 1200 224 R0
SYMATTR InstName R4
SYMATTR Value 500
SYMBOL cap 976 448 R0
SYMATTR InstName C2
SYMATTR Value 0.01µ
SYMATTR SpiceLine V=50 Irms=270m Rser=0.379979 Lser=0 mfg="KEMET" pn="C1206C103K5RAC" type="X7R"
SYMBOL res 1328 336 R0
SYMATTR InstName R2
SYMATTR Value 100
SYMBOL res 1232 -32 R0
SYMATTR InstName R5
SYMATTR Value 50000
SYMBOL diode 1328 240 R0
SYMATTR InstName D2
SYMATTR Value 1N4148
SYMBOL diode 1424 240 R0
SYMATTR InstName D3
SYMATTR Value 1N4148
TEXT -64 648 Left 2 !.tran 10
